Circuit: * C:\Users\georg\Desktop\EE320L Final\Draft2.asc


Date: Wed Dec 02 00:22:42 2020
Total elapsed time: 0.023 seconds.

tnom = 27
temp = 27
method = trap
totiter = 0
traniter = 0
tranpoints = 0
accept = 0
rejected = 0
matrix size = 3
fillins = 0
solver = Normal

