Circuit: * C:\Users\georg\Desktop\EE320L Final\Draft3.asc

Direct Newton iteration for .op point succeeded.

Date: Wed Dec 09 23:28:14 2020
Total elapsed time: 0.314 seconds.

tnom = 27
temp = 27
method = modified trap
totiter = 20282
traniter = 20275
tranpoints = 9219
accept = 5540
rejected = 3679
matrix size = 10
fillins = 0
solver = Normal
Matrix Compiler1: 444 bytes object code size  0.1/0.1/[0.0]
Matrix Compiler2: 740 bytes object code size  0.1/0.1/[0.0]

