Circuit: * C:\Users\georg\Desktop\EE320L Final\Draft1.asc

Direct Newton iteration for .op point succeeded.

Date: Wed Dec 02 05:37:00 2020
Total elapsed time: 0.074 seconds.

tnom = 27
temp = 27
method = trap
totiter = 5
traniter = 0
tranpoints = 0
accept = 0
rejected = 0
matrix size = 9
fillins = 0
solver = Normal
Matrix Compiler1:      23 opcodes
Matrix Compiler2: 667 bytes object code size
