Circuit: * C:\Users\georg\Desktop\EE320L Final\FinalDraft.asc

WARNING: Node N020 is floating.
WARNING: Node N010 is floating.
WARNING: Node N002 is floating.
WARNING: Node N004 is floating.
WARNING: Node N011 is floating.
WARNING: Node N013 is floating.
WARNING: Node N022 is floating.
WARNING: Node N024 is floating.
WARNING: Node N028 is floating.
WARNING: Node VOUT is floating.

WARNING: Less than two connections to node VOUT.  This node is used by C9.
Direct Newton iteration failed to find .op point.  (Use ".option noopiter" to skip.)
Starting Gmin stepping
Gmin = 10
Gmin = 1.07374
Gmin = 0.115292
Gmin = 0.0123794
Gmin = 0.00132923
Gmin = 0.000142725
Gmin = 1.5325e-005
Gmin = 1.6455e-006
Gmin = 1.76685e-007
Gmin = 1.89714e-008
Gmin = 2.03704e-009
Gmin = 2.18725e-010
Gmin = 2.34854e-011
Gmin = 2.52173e-012
Gmin = 2.70769e-013
Gmin = 0
Gmin stepping succeeded in finding the operating point.


Date: Sun Dec 06 23:42:48 2020
Total elapsed time: 7.409 seconds.

tnom = 27
temp = 27
method = modified trap
totiter = 331525
traniter = 331024
tranpoints = 118526
accept = 107422
rejected = 11104
matrix size = 90
fillins = 22
solver = Normal
Thread vector: 6.2/4.2[2] 3.5/2.5[2] 1.3/1.5[1] 0.3/1.0[1]  2592/500
Matrix Compiler1: 8.72 KB object code size  1.5/0.8/[0.4]
Matrix Compiler2: 9.07 KB object code size  1.0/1.7/[0.5]

